
<h3>发现最新漏洞情报<font color="red">10</font>条：</h3>
<ul>
    <li><font color="red">10</font>条由 [<a href="https://www.tenable.com/">Tenable (Nessus)</a>] 提供</li>
</ul>
<h3>详细漏洞清单如下：</h3>
<br/>
<br/>==============================================<br/>[<b>漏洞来源</b>] Tenable (Nessus)<br/>[<b>漏洞编号</b>] <font color='blue'>CVE-2024-5143</font><br/>[<b>披露时间</b>] 2024-05-23 17:15:31<br/>[<b>漏洞描述</b>] A user with device administrative privileges can change existing SMTP server settings on the device, without having to re-enter SMTP server credentials. By redirecting send-to-email traffic to the new server, the original SMTP server credentials may potentially be exposed.<br/>[<b>相关链接</b>] <a href='https://www.tenable.com/cve/CVE-2024-5143'>https://www.tenable.com/cve/CVE-2024-5143</a>
<br/>==============================================<br/>[<b>漏洞来源</b>] Tenable (Nessus)<br/>[<b>漏洞编号</b>] <font color='blue'>CVE-2024-4365</font><br/>[<b>披露时间</b>] 2024-05-23 17:15:31<br/>[<b>漏洞描述</b>] The Advanced iFrame plugin for WordPress is vulnerable to Stored Cross-Site Scripting via the ‘add_iframe_url_as_param_direct’ parameter in versions up to, and including, 2024.3 due to insufficient input sanitization and output escaping. This makes it possible for authenticated attackers, with contributor-level permissions and above, to inject arbitrary web scripts in pages that will execute whenever a user accesses an injected page.<br/>[<b>相关链接</b>] <a href='https://www.tenable.com/cve/CVE-2024-4365'>https://www.tenable.com/cve/CVE-2024-4365</a>
<br/>==============================================<br/>[<b>漏洞来源</b>] Tenable (Nessus)<br/>[<b>漏洞编号</b>] <font color='blue'>CVE-2024-35091</font><br/>[<b>披露时间</b>] 2024-05-23 17:15:31<br/>[<b>漏洞描述</b>] J2EEFAST v2.7.0 was discovered to contain a SQL injection vulnerability via the findPage function in SysTenantMapper.xml.<br/>[<b>相关链接</b>] <a href='https://www.tenable.com/cve/CVE-2024-35091'>https://www.tenable.com/cve/CVE-2024-35091</a>
<br/>==============================================<br/>[<b>漏洞来源</b>] Tenable (Nessus)<br/>[<b>漏洞编号</b>] <font color='blue'>CVE-2024-35090</font><br/>[<b>披露时间</b>] 2024-05-23 17:15:31<br/>[<b>漏洞描述</b>] J2EEFAST v2.7.0 was discovered to contain a SQL injection vulnerability via the findPage function in SysUreportFileMapper.xml.<br/>[<b>相关链接</b>] <a href='https://www.tenable.com/cve/CVE-2024-35090'>https://www.tenable.com/cve/CVE-2024-35090</a>
<br/>==============================================<br/>[<b>漏洞来源</b>] Tenable (Nessus)<br/>[<b>漏洞编号</b>] <font color='blue'>CVE-2024-35086</font><br/>[<b>披露时间</b>] 2024-05-23 17:15:30<br/>[<b>漏洞描述</b>] J2EEFAST v2.7.0 was discovered to contain a SQL injection vulnerability via the findPage function in BpmTaskFromMapper.xml .<br/>[<b>相关链接</b>] <a href='https://www.tenable.com/cve/CVE-2024-35086'>https://www.tenable.com/cve/CVE-2024-35086</a>
<br/>==============================================<br/>[<b>漏洞来源</b>] Tenable (Nessus)<br/>[<b>漏洞编号</b>] <font color='blue'>CVE-2024-35085</font><br/>[<b>披露时间</b>] 2024-05-23 17:15:30<br/>[<b>漏洞描述</b>] J2EEFAST v2.7.0 was discovered to contain a SQL injection vulnerability via the findPage function in ProcessDefinitionMapper.xml.<br/>[<b>相关链接</b>] <a href='https://www.tenable.com/cve/CVE-2024-35085'>https://www.tenable.com/cve/CVE-2024-35085</a>
<br/>==============================================<br/>[<b>漏洞来源</b>] Tenable (Nessus)<br/>[<b>漏洞编号</b>] <font color='blue'>CVE-2024-35084</font><br/>[<b>披露时间</b>] 2024-05-23 17:15:30<br/>[<b>漏洞描述</b>] J2EEFAST v2.7.0 was discovered to contain a SQL injection vulnerability via the findPage function in SysMsgPushMapper.xml.<br/>[<b>相关链接</b>] <a href='https://www.tenable.com/cve/CVE-2024-35084'>https://www.tenable.com/cve/CVE-2024-35084</a>
<br/>==============================================<br/>[<b>漏洞来源</b>] Tenable (Nessus)<br/>[<b>漏洞编号</b>] <font color='blue'>CVE-2024-35083</font><br/>[<b>披露时间</b>] 2024-05-23 17:15:30<br/>[<b>漏洞描述</b>] J2EEFAST v2.7.0 was discovered to contain a SQL injection vulnerability via the findPage function in SysLoginInfoMapper.xml.<br/>[<b>相关链接</b>] <a href='https://www.tenable.com/cve/CVE-2024-35083'>https://www.tenable.com/cve/CVE-2024-35083</a>
<br/>==============================================<br/>[<b>漏洞来源</b>] Tenable (Nessus)<br/>[<b>漏洞编号</b>] <font color='blue'>CVE-2024-35082</font><br/>[<b>披露时间</b>] 2024-05-23 17:15:30<br/>[<b>漏洞描述</b>] J2EEFAST v2.7.0 was discovered to contain a SQL injection vulnerability via the findPage function in SysOperLogMapper.xml.<br/>[<b>相关链接</b>] <a href='https://www.tenable.com/cve/CVE-2024-35082'>https://www.tenable.com/cve/CVE-2024-35082</a>
<br/>==============================================<br/>[<b>漏洞来源</b>] Tenable (Nessus)<br/>[<b>漏洞编号</b>] <font color='blue'>CVE-2024-35081</font><br/>[<b>披露时间</b>] 2024-05-23 17:15:30<br/>[<b>漏洞描述</b>] LuckyFrameWeb v3.5.2 was discovered to contain an arbitrary file deletion vulnerability via the fileName parameter in the fileDownload method.<br/>[<b>相关链接</b>] <a href='https://www.tenable.com/cve/CVE-2024-35081'>https://www.tenable.com/cve/CVE-2024-35081</a>

<br/><br/>
++++++++++++++++++++++++++++++++++++++++++++++
<br/>
<font color="red">【漏洞情报收集与播报支持】</font>
